SUMMARY OF JOB INFORMATION
  STEP      INC     ATT  ITRS     TOT TIME     STEP TIME      INC TIME
     1          1     1     2  0.500000E-02  0.500000E-02  0.500000E-02
     1          1     2     2  0.500000E-02  0.500000E-02  0.500000E-02
     1          1     2     2  0.500000E-02  0.500000E-02  0.500000E-02
     1          1     2     2  0.500000E-02  0.500000E-02  0.500000E-02
     1          1     2     2  0.500000E-02  0.500000E-02  0.500000E-02
     1          1     2     2  0.500000E-02  0.500000E-02  0.500000E-02
     1          2     1     2  0.100000E-01  0.100000E-01  0.500000E-02
     1          2     2     2  0.100000E-01  0.100000E-01  0.500000E-02
     1          2     2     2  0.100000E-01  0.100000E-01  0.500000E-02
     1          2     2     2  0.100000E-01  0.100000E-01  0.500000E-02
     1          2     2     2  0.100000E-01  0.100000E-01  0.500000E-02
     1          2     2     2  0.100000E-01  0.100000E-01  0.500000E-02
     1          2     2     2  0.100000E-01  0.100000E-01  0.500000E-02
     1          2     2     2  0.100000E-01  0.100000E-01  0.500000E-02
     1          2     2     2  0.100000E-01  0.100000E-01  0.500000E-02
     1          2     2     2  0.100000E-01  0.100000E-01  0.500000E-02
     1          2     2     2  0.100000E-01  0.100000E-01  0.500000E-02
     1          2     2     2  0.100000E-01  0.100000E-01  0.500000E-02
     1          2     2     2  0.100000E-01  0.100000E-01  0.500000E-02
     1          2     2     2  0.100000E-01  0.100000E-01  0.500000E-02
     1          2     2     2  0.100000E-01  0.100000E-01  0.500000E-02
     1          2     2     2  0.100000E-01  0.100000E-01  0.500000E-02
     1          2     2     2  0.100000E-01  0.100000E-01  0.500000E-02
     1          2     2     2  0.100000E-01  0.100000E-01  0.500000E-02
     1          2     2     2  0.100000E-01  0.100000E-01  0.500000E-02
     1          2     2     2  0.100000E-01  0.100000E-01  0.500000E-02
     1          2     2     2  0.100000E-01  0.100000E-01  0.500000E-02
     1          2     2     2  0.100000E-01  0.100000E-01  0.500000E-02
     1          2     2     2  0.100000E-01  0.100000E-01  0.500000E-02
     1          2     2     2  0.100000E-01  0.100000E-01  0.500000E-02
     1          2     2     2  0.100000E-01  0.100000E-01  0.500000E-02
     1          2     2     2  0.100000E-01  0.100000E-01  0.500000E-02
     1          2     2     2  0.100000E-01  0.100000E-01  0.500000E-02
     1          2     2     2  0.100000E-01  0.100000E-01  0.500000E-02
     1          2     2     2  0.100000E-01  0.100000E-01  0.500000E-02
     1          2     2     2  0.100000E-01  0.100000E-01  0.500000E-02
     1          3     1     2  0.150000E-01  0.150000E-01  0.500000E-02
     1          3     2     2  0.150000E-01  0.150000E-01  0.500000E-02
     1          3     2     2  0.150000E-01  0.150000E-01  0.500000E-02
     1          3     2     2  0.150000E-01  0.150000E-01  0.500000E-02
     1          3     2     2  0.150000E-01  0.150000E-01  0.500000E-02
     1          3     2     2  0.150000E-01  0.150000E-01  0.500000E-02
     1          3     2     2  0.150000E-01  0.150000E-01  0.500000E-02
     1          3     2     2  0.150000E-01  0.150000E-01  0.500000E-02
     1          3     2     2  0.150000E-01  0.150000E-01  0.500000E-02
     1          3     2     2  0.150000E-01  0.150000E-01  0.500000E-02
     1          3     2     2  0.150000E-01  0.150000E-01  0.500000E-02
     1          3     2     2  0.150000E-01  0.150000E-01  0.500000E-02
     1          3     2     2  0.150000E-01  0.150000E-01  0.500000E-02
     1          3     2     2  0.150000E-01  0.150000E-01  0.500000E-02
     1          3     2     2  0.150000E-01  0.150000E-01  0.500000E-02
     1          3     2     2  0.150000E-01  0.150000E-01  0.500000E-02
     1          3     2     2  0.150000E-01  0.150000E-01  0.500000E-02
     1          3     2     2  0.150000E-01  0.150000E-01  0.500000E-02
     1          3     2     2  0.150000E-01  0.150000E-01  0.500000E-02
     1          3     2     2  0.150000E-01  0.150000E-01  0.500000E-02
     1          3     2     2  0.150000E-01  0.150000E-01  0.500000E-02
     1          3     2     2  0.150000E-01  0.150000E-01  0.500000E-02
     1          3     2     2  0.150000E-01  0.150000E-01  0.500000E-02
     1          3     2     2  0.150000E-01  0.150000E-01  0.500000E-02
     1          3     2     2  0.150000E-01  0.150000E-01  0.500000E-02
     1          3     2     2  0.150000E-01  0.150000E-01  0.500000E-02
     1          3     2     2  0.150000E-01  0.150000E-01  0.500000E-02
     1          3     2     2  0.150000E-01  0.150000E-01  0.500000E-02
     1          3     2     2  0.150000E-01  0.150000E-01  0.500000E-02
     1          3     2     2  0.150000E-01  0.150000E-01  0.500000E-02
     1          4     1     2  0.200000E-01  0.200000E-01  0.500000E-02
     1          4     2     3  0.200000E-01  0.200000E-01  0.500000E-02
     1          4     2     2  0.200000E-01  0.200000E-01  0.500000E-02
     1          4     2     2  0.200000E-01  0.200000E-01  0.500000E-02
     1          4     2     2  0.200000E-01  0.200000E-01  0.500000E-02
     1          4     2     2  0.200000E-01  0.200000E-01  0.500000E-02
     1          4     2     2  0.200000E-01  0.200000E-01  0.500000E-02
     1          4     2     2  0.200000E-01  0.200000E-01  0.500000E-02
     1          4     2     2  0.200000E-01  0.200000E-01  0.500000E-02
     1          4     2     2  0.200000E-01  0.200000E-01  0.500000E-02
     1          4     2     2  0.200000E-01  0.200000E-01  0.500000E-02
     1          4     2     2  0.200000E-01  0.200000E-01  0.500000E-02
     1          4     2     2  0.200000E-01  0.200000E-01  0.500000E-02
     1          4     2     2  0.200000E-01  0.200000E-01  0.500000E-02
     1          4     2     2  0.200000E-01  0.200000E-01  0.500000E-02
     1          5     1     2  0.250000E-01  0.250000E-01  0.500000E-02
     1          5     2     3  0.250000E-01  0.250000E-01  0.500000E-02
     1          5     2     2  0.250000E-01  0.250000E-01  0.500000E-02
     1          5     2     2  0.250000E-01  0.250000E-01  0.500000E-02
     1          5     2     2  0.250000E-01  0.250000E-01  0.500000E-02
     1          5     2     2  0.250000E-01  0.250000E-01  0.500000E-02
     1          5     2     2  0.250000E-01  0.250000E-01  0.500000E-02
     1          5     2     2  0.250000E-01  0.250000E-01  0.500000E-02
     1          5     2     2  0.250000E-01  0.250000E-01  0.500000E-02
     1          5     2     2  0.250000E-01  0.250000E-01  0.500000E-02
     1          5     2     2  0.250000E-01  0.250000E-01  0.500000E-02
     1          5     2     2  0.250000E-01  0.250000E-01  0.500000E-02
     1          5     2     2  0.250000E-01  0.250000E-01  0.500000E-02
     1          5     2     2  0.250000E-01  0.250000E-01  0.500000E-02
     1          5     2     2  0.250000E-01  0.250000E-01  0.500000E-02
     1          5     2     2  0.250000E-01  0.250000E-01  0.500000E-02
     1          5     2     2  0.250000E-01  0.250000E-01  0.500000E-02
     1          6     1     2  0.300000E-01  0.300000E-01  0.500000E-02
     1          6     2     2  0.300000E-01  0.300000E-01  0.500000E-02
     1          6     2     2  0.300000E-01  0.300000E-01  0.500000E-02
     1          6     2     2  0.300000E-01  0.300000E-01  0.500000E-02
     1          6     2     2  0.300000E-01  0.300000E-01  0.500000E-02
     1          6     2     2  0.300000E-01  0.300000E-01  0.500000E-02
     1          6     2     2  0.300000E-01  0.300000E-01  0.500000E-02
     1          6     2     2  0.300000E-01  0.300000E-01  0.500000E-02
     1          6     2     2  0.300000E-01  0.300000E-01  0.500000E-02
     1          6     2     2  0.300000E-01  0.300000E-01  0.500000E-02
     1          7     1     2  0.350000E-01  0.350000E-01  0.500000E-02
     1          7     2     2  0.350000E-01  0.350000E-01  0.500000E-02
     1          7     2     2  0.350000E-01  0.350000E-01  0.500000E-02
     1          7     2     2  0.350000E-01  0.350000E-01  0.500000E-02
     1          7     2     2  0.350000E-01  0.350000E-01  0.500000E-02
     1          7     2     2  0.350000E-01  0.350000E-01  0.500000E-02
     1          7     2     2  0.350000E-01  0.350000E-01  0.500000E-02
     1          7     2     2  0.350000E-01  0.350000E-01  0.500000E-02
     1          7     2     2  0.350000E-01  0.350000E-01  0.500000E-02
     1          7     2     2  0.350000E-01  0.350000E-01  0.500000E-02
     1          7     2     2  0.350000E-01  0.350000E-01  0.500000E-02
     1          7     2     2  0.350000E-01  0.350000E-01  0.500000E-02
     1          7     2     2  0.350000E-01  0.350000E-01  0.500000E-02
     1          7     2     2  0.350000E-01  0.350000E-01  0.500000E-02
     1          8     1     2  0.400000E-01  0.400000E-01  0.500000E-02
     1          8     2     2  0.400000E-01  0.400000E-01  0.500000E-02
     1          8     2     2  0.400000E-01  0.400000E-01  0.500000E-02
     1          8     2     2  0.400000E-01  0.400000E-01  0.500000E-02
     1          8     2     2  0.400000E-01  0.400000E-01  0.500000E-02
     1          8     2     2  0.400000E-01  0.400000E-01  0.500000E-02
     1          8     2     2  0.400000E-01  0.400000E-01  0.500000E-02
     1          8     2     2  0.400000E-01  0.400000E-01  0.500000E-02
     1          9     1     2  0.450000E-01  0.450000E-01  0.500000E-02
     1          9     2     2  0.450000E-01  0.450000E-01  0.500000E-02
     1          9     2     2  0.450000E-01  0.450000E-01  0.500000E-02
     1          9     2     2  0.450000E-01  0.450000E-01  0.500000E-02
     1          9     2     2  0.450000E-01  0.450000E-01  0.500000E-02
     1          9     2     2  0.450000E-01  0.450000E-01  0.500000E-02
     1          9     2     2  0.450000E-01  0.450000E-01  0.500000E-02
     1          9     2     2  0.450000E-01  0.450000E-01  0.500000E-02
     1         10     1     2  0.500000E-01  0.500000E-01  0.500000E-02
     1         10     2     2  0.500000E-01  0.500000E-01  0.500000E-02
     1         10     2     2  0.500000E-01  0.500000E-01  0.500000E-02
     1         10     2     2  0.500000E-01  0.500000E-01  0.500000E-02
     1         10     2     2  0.500000E-01  0.500000E-01  0.500000E-02
     1         10     2     2  0.500000E-01  0.500000E-01  0.500000E-02
     1         10     2     2  0.500000E-01  0.500000E-01  0.500000E-02
     1         10     2     2  0.500000E-01  0.500000E-01  0.500000E-02
     1         10     2     2  0.500000E-01  0.500000E-01  0.500000E-02
     1         10     2     2  0.500000E-01  0.500000E-01  0.500000E-02
     1         10     2     2  0.500000E-01  0.500000E-01  0.500000E-02
     1         11     1     2  0.550000E-01  0.550000E-01  0.500000E-02
     1         11     2     2  0.550000E-01  0.550000E-01  0.500000E-02
     1         11     2     2  0.550000E-01  0.550000E-01  0.500000E-02
     1         11     2     2  0.550000E-01  0.550000E-01  0.500000E-02
     1         11     2     2  0.550000E-01  0.550000E-01  0.500000E-02
     1         11     2     2  0.550000E-01  0.550000E-01  0.500000E-02
     1         11     2     2  0.550000E-01  0.550000E-01  0.500000E-02
     1         11     2     2  0.550000E-01  0.550000E-01  0.500000E-02
     1         11     2     2  0.550000E-01  0.550000E-01  0.500000E-02
     1         12     1     2  0.600000E-01  0.600000E-01  0.500000E-02
     1         12     2     2  0.600000E-01  0.600000E-01  0.500000E-02
     1         12     2     2  0.600000E-01  0.600000E-01  0.500000E-02
     1         12     2     2  0.600000E-01  0.600000E-01  0.500000E-02
     1         12     2     2  0.600000E-01  0.600000E-01  0.500000E-02
     1         12     2     2  0.600000E-01  0.600000E-01  0.500000E-02
     1         12     2     2  0.600000E-01  0.600000E-01  0.500000E-02
     1         12     2     2  0.600000E-01  0.600000E-01  0.500000E-02
     1         12     2     2  0.600000E-01  0.600000E-01  0.500000E-02
     1         13     1     2  0.650000E-01  0.650000E-01  0.500000E-02
     1         13     2     2  0.650000E-01  0.650000E-01  0.500000E-02
     1         13     2     2  0.650000E-01  0.650000E-01  0.500000E-02
     1         13     2     2  0.650000E-01  0.650000E-01  0.500000E-02
     1         13     2     2  0.650000E-01  0.650000E-01  0.500000E-02
     1         13     2     2  0.650000E-01  0.650000E-01  0.500000E-02
     1         13     2     2  0.650000E-01  0.650000E-01  0.500000E-02
     1         13     2     2  0.650000E-01  0.650000E-01  0.500000E-02
     1         14     1     2  0.700000E-01  0.700000E-01  0.500000E-02
     1         14     2     2  0.700000E-01  0.700000E-01  0.500000E-02
     1         14     2     2  0.700000E-01  0.700000E-01  0.500000E-02
     1         14     2     2  0.700000E-01  0.700000E-01  0.500000E-02
     1         14     2     2  0.700000E-01  0.700000E-01  0.500000E-02
     1         14     2     2  0.700000E-01  0.700000E-01  0.500000E-02
     1         14     2     2  0.700000E-01  0.700000E-01  0.500000E-02
     1         15     1     2  0.750000E-01  0.750000E-01  0.500000E-02
     1         15     2     2  0.750000E-01  0.750000E-01  0.500000E-02
     1         15     2     2  0.750000E-01  0.750000E-01  0.500000E-02
     1         15     2     2  0.750000E-01  0.750000E-01  0.500000E-02
     1         15     2     2  0.750000E-01  0.750000E-01  0.500000E-02
     1         15     2     2  0.750000E-01  0.750000E-01  0.500000E-02
     1         15     2     2  0.750000E-01  0.750000E-01  0.500000E-02
     1         15     2     2  0.750000E-01  0.750000E-01  0.500000E-02
     1         15     2     2  0.750000E-01  0.750000E-01  0.500000E-02
     1         15     2     2  0.750000E-01  0.750000E-01  0.500000E-02
     1         16     1     2  0.800000E-01  0.800000E-01  0.500000E-02
     1         16     2     2  0.800000E-01  0.800000E-01  0.500000E-02
     1         16     2     2  0.800000E-01  0.800000E-01  0.500000E-02
     1         16     2     2  0.800000E-01  0.800000E-01  0.500000E-02
     1         16     2     2  0.800000E-01  0.800000E-01  0.500000E-02
     1         16     2     2  0.800000E-01  0.800000E-01  0.500000E-02
     1         16     2     2  0.800000E-01  0.800000E-01  0.500000E-02
     1         16     2     2  0.800000E-01  0.800000E-01  0.500000E-02
     1         17     1     2  0.850000E-01  0.850000E-01  0.500000E-02
     1         17     2     2  0.850000E-01  0.850000E-01  0.500000E-02
     1         17     2     2  0.850000E-01  0.850000E-01  0.500000E-02
     1         17     2     2  0.850000E-01  0.850000E-01  0.500000E-02
     1         17     2     2  0.850000E-01  0.850000E-01  0.500000E-02
     1         17     2     2  0.850000E-01  0.850000E-01  0.500000E-02
     1         17     2     2  0.850000E-01  0.850000E-01  0.500000E-02
     1         18     1     2  0.900000E-01  0.900000E-01  0.500000E-02
     1         18     2     2  0.900000E-01  0.900000E-01  0.500000E-02
     1         18     2     2  0.900000E-01  0.900000E-01  0.500000E-02
     1         18     2     2  0.900000E-01  0.900000E-01  0.500000E-02
     1         18     2     2  0.900000E-01  0.900000E-01  0.500000E-02
     1         18     2     2  0.900000E-01  0.900000E-01  0.500000E-02
     1         18     2     2  0.900000E-01  0.900000E-01  0.500000E-02
     1         19     1     2  0.950000E-01  0.950000E-01  0.500000E-02
     1         19     2     2  0.950000E-01  0.950000E-01  0.500000E-02
     1         19     2     2  0.950000E-01  0.950000E-01  0.500000E-02
     1         19     2     2  0.950000E-01  0.950000E-01  0.500000E-02
     1         19     2     2  0.950000E-01  0.950000E-01  0.500000E-02
     1         19     2     2  0.950000E-01  0.950000E-01  0.500000E-02
     1         20     1     2  0.100000E+00  0.100000E+00  0.500000E-02
     1         20     2     2  0.100000E+00  0.100000E+00  0.500000E-02
     1         20     2     2  0.100000E+00  0.100000E+00  0.500000E-02
     1         20     2     2  0.100000E+00  0.100000E+00  0.500000E-02
     1         20     2     2  0.100000E+00  0.100000E+00  0.500000E-02
     1         21     1     2  0.105000E+00  0.105000E+00  0.500000E-02
     1         21     2     2  0.105000E+00  0.105000E+00  0.500000E-02
     1         21     2     2  0.105000E+00  0.105000E+00  0.500000E-02
     1         21     2     2  0.105000E+00  0.105000E+00  0.500000E-02
     1         21     2     2  0.105000E+00  0.105000E+00  0.500000E-02
     1         21     2     2  0.105000E+00  0.105000E+00  0.500000E-02
     1         22     1     2  0.110000E+00  0.110000E+00  0.500000E-02
     1         22     2     2  0.110000E+00  0.110000E+00  0.500000E-02
     1         22     2     2  0.110000E+00  0.110000E+00  0.500000E-02
     1         22     2     2  0.110000E+00  0.110000E+00  0.500000E-02
     1         22     2     2  0.110000E+00  0.110000E+00  0.500000E-02
     1         22     2     2  0.110000E+00  0.110000E+00  0.500000E-02
     1         23     1     2  0.115000E+00  0.115000E+00  0.500000E-02
     1         23     2     2  0.115000E+00  0.115000E+00  0.500000E-02
     1         23     2     2  0.115000E+00  0.115000E+00  0.500000E-02
     1         23     2     2  0.115000E+00  0.115000E+00  0.500000E-02
     1         23     2     2  0.115000E+00  0.115000E+00  0.500000E-02
     1         23     2     2  0.115000E+00  0.115000E+00  0.500000E-02
     1         24     1     2  0.120000E+00  0.120000E+00  0.500000E-02
     1         24     2     2  0.120000E+00  0.120000E+00  0.500000E-02
     1         24     2     2  0.120000E+00  0.120000E+00  0.500000E-02
     1         24     2     2  0.120000E+00  0.120000E+00  0.500000E-02
     1         24     2     2  0.120000E+00  0.120000E+00  0.500000E-02
     1         24     2     2  0.120000E+00  0.120000E+00  0.500000E-02
     1         25     1     2  0.125000E+00  0.125000E+00  0.500000E-02
     1         25     2     2  0.125000E+00  0.125000E+00  0.500000E-02
     1         25     2     2  0.125000E+00  0.125000E+00  0.500000E-02
     1         25     2     2  0.125000E+00  0.125000E+00  0.500000E-02
     1         25     2     2  0.125000E+00  0.125000E+00  0.500000E-02
     1         25     2     2  0.125000E+00  0.125000E+00  0.500000E-02
     1         25     2     2  0.125000E+00  0.125000E+00  0.500000E-02
     1         25     2     2  0.125000E+00  0.125000E+00  0.500000E-02
     1         26     1     2  0.130000E+00  0.130000E+00  0.500000E-02
     1         26     2     2  0.130000E+00  0.130000E+00  0.500000E-02
     1         26     2     2  0.130000E+00  0.130000E+00  0.500000E-02
     1         26     2     2  0.130000E+00  0.130000E+00  0.500000E-02
     1         26     2     2  0.130000E+00  0.130000E+00  0.500000E-02
     1         26     2     2  0.130000E+00  0.130000E+00  0.500000E-02
     1         26     2     2  0.130000E+00  0.130000E+00  0.500000E-02
     1         27     1     2  0.135000E+00  0.135000E+00  0.500000E-02
     1         27     2     3  0.135000E+00  0.135000E+00  0.500000E-02
     1         27     2     2  0.135000E+00  0.135000E+00  0.500000E-02
     1         27     2     2  0.135000E+00  0.135000E+00  0.500000E-02
     1         27     2     2  0.135000E+00  0.135000E+00  0.500000E-02
     1         27     2     2  0.135000E+00  0.135000E+00  0.500000E-02
     1         27     2     2  0.135000E+00  0.135000E+00  0.500000E-02
     1         27     2     2  0.135000E+00  0.135000E+00  0.500000E-02
     1         28     1     2  0.140000E+00  0.140000E+00  0.500000E-02
     1         28     2     2  0.140000E+00  0.140000E+00  0.500000E-02
     1         28     2     2  0.140000E+00  0.140000E+00  0.500000E-02
     1         28     2     2  0.140000E+00  0.140000E+00  0.500000E-02
     1         28     2     2  0.140000E+00  0.140000E+00  0.500000E-02
     1         28     2     2  0.140000E+00  0.140000E+00  0.500000E-02
     1         28     2     2  0.140000E+00  0.140000E+00  0.500000E-02
     1         28     2     2  0.140000E+00  0.140000E+00  0.500000E-02
     1         28     2     2  0.140000E+00  0.140000E+00  0.500000E-02
     1         29     1     2  0.145000E+00  0.145000E+00  0.500000E-02
     1         29     2     3  0.145000E+00  0.145000E+00  0.500000E-02
     1         29     2     2  0.145000E+00  0.145000E+00  0.500000E-02
     1         29     2     3  0.145000E+00  0.145000E+00  0.500000E-02
     1         29     2     2  0.145000E+00  0.145000E+00  0.500000E-02
     1         29     2     2  0.145000E+00  0.145000E+00  0.500000E-02
     1         29     2     2  0.145000E+00  0.145000E+00  0.500000E-02
     1         29     2     2  0.145000E+00  0.145000E+00  0.500000E-02
     1         29     2     2  0.145000E+00  0.145000E+00  0.500000E-02
     1         29     2     2  0.145000E+00  0.145000E+00  0.500000E-02
     1         29     2     2  0.145000E+00  0.145000E+00  0.500000E-02
     1         29     2     2  0.145000E+00  0.145000E+00  0.500000E-02
     1         29     2     2  0.145000E+00  0.145000E+00  0.500000E-02
     1         30     1     2  0.150000E+00  0.150000E+00  0.500000E-02
     1         30     2     2  0.150000E+00  0.150000E+00  0.500000E-02
     1         30     2     3  0.150000E+00  0.150000E+00  0.500000E-02
     1         30     2     2  0.150000E+00  0.150000E+00  0.500000E-02
     1         30     2     2  0.150000E+00  0.150000E+00  0.500000E-02
     1         30     2     2  0.150000E+00  0.150000E+00  0.500000E-02
     1         30     2     2  0.150000E+00  0.150000E+00  0.500000E-02
     1         30     2     2  0.150000E+00  0.150000E+00  0.500000E-02
     1         30     2     2  0.150000E+00  0.150000E+00  0.500000E-02
     1         30     2     2  0.150000E+00  0.150000E+00  0.500000E-02
     1         30     2     2  0.150000E+00  0.150000E+00  0.500000E-02
     1         30     2     2  0.150000E+00  0.150000E+00  0.500000E-02
     1         31     1     2  0.155000E+00  0.155000E+00  0.500000E-02
     1         31     2     3  0.155000E+00  0.155000E+00  0.500000E-02
     1         31     2     2  0.155000E+00  0.155000E+00  0.500000E-02
     1         31     2     2  0.155000E+00  0.155000E+00  0.500000E-02
     1         31     2     2  0.155000E+00  0.155000E+00  0.500000E-02
     1         31     2     2  0.155000E+00  0.155000E+00  0.500000E-02
     1         31     2     2  0.155000E+00  0.155000E+00  0.500000E-02
     1         31     2     2  0.155000E+00  0.155000E+00  0.500000E-02
     1         31     2     2  0.155000E+00  0.155000E+00  0.500000E-02
     1         31     2     2  0.155000E+00  0.155000E+00  0.500000E-02
     1         32     1     2  0.160000E+00  0.160000E+00  0.500000E-02
     1         32     2     2  0.160000E+00  0.160000E+00  0.500000E-02
     1         32     2     2  0.160000E+00  0.160000E+00  0.500000E-02
     1         32     2     2  0.160000E+00  0.160000E+00  0.500000E-02
     1         32     2     2  0.160000E+00  0.160000E+00  0.500000E-02
     1         32     2     2  0.160000E+00  0.160000E+00  0.500000E-02
     1         32     2     2  0.160000E+00  0.160000E+00  0.500000E-02
     1         32     2     2  0.160000E+00  0.160000E+00  0.500000E-02
     1         32     2     2  0.160000E+00  0.160000E+00  0.500000E-02
     1         32     2     2  0.160000E+00  0.160000E+00  0.500000E-02
     1         32     2     2  0.160000E+00  0.160000E+00  0.500000E-02
     1         32     2     2  0.160000E+00  0.160000E+00  0.500000E-02
     1         33     1     2  0.165000E+00  0.165000E+00  0.500000E-02
     1         33     2     3  0.165000E+00  0.165000E+00  0.500000E-02
     1         33     2     3  0.165000E+00  0.165000E+00  0.500000E-02
     1         33     2     2  0.165000E+00  0.165000E+00  0.500000E-02
     1         33     2     3  0.165000E+00  0.165000E+00  0.500000E-02
     1         33     2     2  0.165000E+00  0.165000E+00  0.500000E-02
     1         33     2     2  0.165000E+00  0.165000E+00  0.500000E-02
     1         33     2     2  0.165000E+00  0.165000E+00  0.500000E-02
     1         33     2     2  0.165000E+00  0.165000E+00  0.500000E-02
     1         33     2     2  0.165000E+00  0.165000E+00  0.500000E-02
     1         33     2     2  0.165000E+00  0.165000E+00  0.500000E-02
     1         33     2     2  0.165000E+00  0.165000E+00  0.500000E-02
     1         33     2     2  0.165000E+00  0.165000E+00  0.500000E-02
     1         33     2     2  0.165000E+00  0.165000E+00  0.500000E-02
     1         33     2     2  0.165000E+00  0.165000E+00  0.500000E-02
     1         33     2     2  0.165000E+00  0.165000E+00  0.500000E-02
     1         34     1     2  0.170000E+00  0.170000E+00  0.500000E-02
     1         34     2     2  0.170000E+00  0.170000E+00  0.500000E-02
     1         34     2     2  0.170000E+00  0.170000E+00  0.500000E-02
     1         34     2     2  0.170000E+00  0.170000E+00  0.500000E-02
     1         34     2     2  0.170000E+00  0.170000E+00  0.500000E-02
     1         34     2     2  0.170000E+00  0.170000E+00  0.500000E-02
     1         34     2     2  0.170000E+00  0.170000E+00  0.500000E-02
     1         34     2     2  0.170000E+00  0.170000E+00  0.500000E-02
     1         34     2     2  0.170000E+00  0.170000E+00  0.500000E-02
     1         34     2     2  0.170000E+00  0.170000E+00  0.500000E-02
     1         34     2     2  0.170000E+00  0.170000E+00  0.500000E-02
     1         35     1     2  0.175000E+00  0.175000E+00  0.500000E-02
     1         35     2     3  0.175000E+00  0.175000E+00  0.500000E-02
     1         35     2     3  0.175000E+00  0.175000E+00  0.500000E-02
     1         35     2     3  0.175000E+00  0.175000E+00  0.500000E-02
     1         35     2     3  0.175000E+00  0.175000E+00  0.500000E-02
     1         35     2     3  0.175000E+00  0.175000E+00  0.500000E-02
     1         35     2     3  0.175000E+00  0.175000E+00  0.500000E-02
     1         35     2     3  0.175000E+00  0.175000E+00  0.500000E-02
     1         35     2     3  0.175000E+00  0.175000E+00  0.500000E-02
     1         35     2     3  0.175000E+00  0.175000E+00  0.500000E-02
     1         35     2     3  0.175000E+00  0.175000E+00  0.500000E-02
     1         36     1     2  0.180000E+00  0.180000E+00  0.500000E-02
     1         36     2     2  0.180000E+00  0.180000E+00  0.500000E-02
     1         36     2     2  0.180000E+00  0.180000E+00  0.500000E-02
     1         36     2     2  0.180000E+00  0.180000E+00  0.500000E-02
     1         36     2     2  0.180000E+00  0.180000E+00  0.500000E-02
     1         36     2     2  0.180000E+00  0.180000E+00  0.500000E-02
     1         36     2     2  0.180000E+00  0.180000E+00  0.500000E-02
     1         36     2     2  0.180000E+00  0.180000E+00  0.500000E-02
     1         36     2     2  0.180000E+00  0.180000E+00  0.500000E-02
     1         37     1     2  0.185000E+00  0.185000E+00  0.500000E-02
     1         37     2     2  0.185000E+00  0.185000E+00  0.500000E-02
     1         37     2     2  0.185000E+00  0.185000E+00  0.500000E-02
     1         37     2     2  0.185000E+00  0.185000E+00  0.500000E-02
     1         37     2     2  0.185000E+00  0.185000E+00  0.500000E-02
     1         37     2     2  0.185000E+00  0.185000E+00  0.500000E-02
     1         37     2     2  0.185000E+00  0.185000E+00  0.500000E-02
     1         37     2     2  0.185000E+00  0.185000E+00  0.500000E-02
     1         38     1     2  0.190000E+00  0.190000E+00  0.500000E-02
     1         38     2     3  0.190000E+00  0.190000E+00  0.500000E-02
     1         38     2     2  0.190000E+00  0.190000E+00  0.500000E-02
     1         38     2     3  0.190000E+00  0.190000E+00  0.500000E-02
     1         38     2     3  0.190000E+00  0.190000E+00  0.500000E-02
     1         38     2     3  0.190000E+00  0.190000E+00  0.500000E-02
     1         38     2     3  0.190000E+00  0.190000E+00  0.500000E-02
     1         38     2     3  0.190000E+00  0.190000E+00  0.500000E-02
     1         39     1     3  0.195000E+00  0.195000E+00  0.500000E-02
     1         39     2     3  0.195000E+00  0.195000E+00  0.500000E-02
     1         39     2     3  0.195000E+00  0.195000E+00  0.500000E-02
     1         39     2     3  0.195000E+00  0.195000E+00  0.500000E-02
     1         39     2     3  0.195000E+00  0.195000E+00  0.500000E-02
     1         39     2     3  0.195000E+00  0.195000E+00  0.500000E-02
     1         39     2     3  0.195000E+00  0.195000E+00  0.500000E-02
     1         40     1     3  0.200000E+00  0.200000E+00  0.500000E-02
     1         40     2     3  0.200000E+00  0.200000E+00  0.500000E-02
     1         40     2     3  0.200000E+00  0.200000E+00  0.500000E-02
     1         40     2     3  0.200000E+00  0.200000E+00  0.500000E-02
     1         40     2     3  0.200000E+00  0.200000E+00  0.500000E-02
     1         40     2     3  0.200000E+00  0.200000E+00  0.500000E-02
     1         40     2     3  0.200000E+00  0.200000E+00  0.500000E-02
     1         41     1     3  0.205000E+00  0.205000E+00  0.500000E-02
     1         41     2     3  0.205000E+00  0.205000E+00  0.500000E-02
     1         41     2     3  0.205000E+00  0.205000E+00  0.500000E-02
     1         41     2     3  0.205000E+00  0.205000E+00  0.500000E-02
     1         41     2     3  0.205000E+00  0.205000E+00  0.500000E-02
     1         41     2     3  0.205000E+00  0.205000E+00  0.500000E-02
     1         41     2     3  0.205000E+00  0.205000E+00  0.500000E-02
     1         42     1     3  0.210000E+00  0.210000E+00  0.500000E-02
     1         42     2     3  0.210000E+00  0.210000E+00  0.500000E-02
     1         42     2     3  0.210000E+00  0.210000E+00  0.500000E-02
     1         42     2     3  0.210000E+00  0.210000E+00  0.500000E-02
     1         42     2     3  0.210000E+00  0.210000E+00  0.500000E-02
     1         42     2     3  0.210000E+00  0.210000E+00  0.500000E-02
     1         42     2     3  0.210000E+00  0.210000E+00  0.500000E-02
     1         42     2     3  0.210000E+00  0.210000E+00  0.500000E-02
     1         42     2     3  0.210000E+00  0.210000E+00  0.500000E-02
     1         42     2     3  0.210000E+00  0.210000E+00  0.500000E-02
     1         43     1     3  0.215000E+00  0.215000E+00  0.500000E-02
     1         43     2     3  0.215000E+00  0.215000E+00  0.500000E-02
     1         43     2     3  0.215000E+00  0.215000E+00  0.500000E-02
     1         43     2     3  0.215000E+00  0.215000E+00  0.500000E-02
     1         43     2     3  0.215000E+00  0.215000E+00  0.500000E-02
     1         43     2     3  0.215000E+00  0.215000E+00  0.500000E-02
     1         43     2     3  0.215000E+00  0.215000E+00  0.500000E-02
     1         43     2     3  0.215000E+00  0.215000E+00  0.500000E-02
     1         44     1     3  0.220000E+00  0.220000E+00  0.500000E-02
     1         44     2     3  0.220000E+00  0.220000E+00  0.500000E-02
     1         44     2     3  0.220000E+00  0.220000E+00  0.500000E-02
     1         44     2     3  0.220000E+00  0.220000E+00  0.500000E-02
     1         44     2     3  0.220000E+00  0.220000E+00  0.500000E-02
     1         44     2     3  0.220000E+00  0.220000E+00  0.500000E-02
     1         44     2     3  0.220000E+00  0.220000E+00  0.500000E-02
     1         45     1     3  0.225000E+00  0.225000E+00  0.500000E-02
     1         45     2     3  0.225000E+00  0.225000E+00  0.500000E-02
     1         45     2     3  0.225000E+00  0.225000E+00  0.500000E-02
     1         45     2     3  0.225000E+00  0.225000E+00  0.500000E-02
     1         45     2     3  0.225000E+00  0.225000E+00  0.500000E-02
     1         45     2     3  0.225000E+00  0.225000E+00  0.500000E-02
     1         45     2     3  0.225000E+00  0.225000E+00  0.500000E-02
     1         46     1     3  0.230000E+00  0.230000E+00  0.500000E-02
     1         46     2     3  0.230000E+00  0.230000E+00  0.500000E-02
     1         46     2     3  0.230000E+00  0.230000E+00  0.500000E-02
     1         46     2     3  0.230000E+00  0.230000E+00  0.500000E-02
     1         46     2     3  0.230000E+00  0.230000E+00  0.500000E-02
     1         46     2     3  0.230000E+00  0.230000E+00  0.500000E-02
     1         47     1     3  0.235000E+00  0.235000E+00  0.500000E-02
     1         47     2     3  0.235000E+00  0.235000E+00  0.500000E-02
     1         47     2     3  0.235000E+00  0.235000E+00  0.500000E-02
     1         47     2     3  0.235000E+00  0.235000E+00  0.500000E-02
     1         47     2     3  0.235000E+00  0.235000E+00  0.500000E-02
     1         47     2     3  0.235000E+00  0.235000E+00  0.500000E-02
     1         47     2     3  0.235000E+00  0.235000E+00  0.500000E-02
     1         48     1     3  0.240000E+00  0.240000E+00  0.500000E-02
     1         48     2     3  0.240000E+00  0.240000E+00  0.500000E-02
     1         48     2     3  0.240000E+00  0.240000E+00  0.500000E-02
     1         48     2     3  0.240000E+00  0.240000E+00  0.500000E-02
     1         48     2     3  0.240000E+00  0.240000E+00  0.500000E-02
     1         48     2     3  0.240000E+00  0.240000E+00  0.500000E-02
     1         49     1     3  0.245000E+00  0.245000E+00  0.500000E-02
     1         49     2     3  0.245000E+00  0.245000E+00  0.500000E-02
     1         49     2     3  0.245000E+00  0.245000E+00  0.500000E-02
     1         49     2     3  0.245000E+00  0.245000E+00  0.500000E-02
     1         49     2     3  0.245000E+00  0.245000E+00  0.500000E-02
     1         49     2     3  0.245000E+00  0.245000E+00  0.500000E-02
     1         50     1     3  0.250000E+00  0.250000E+00  0.500000E-02
     1         50     2     3  0.250000E+00  0.250000E+00  0.500000E-02
     1         50     2     3  0.250000E+00  0.250000E+00  0.500000E-02
     1         50     2     3  0.250000E+00  0.250000E+00  0.500000E-02
     1         50     2     3  0.250000E+00  0.250000E+00  0.500000E-02
     1         51     1     3  0.255000E+00  0.255000E+00  0.500000E-02
     1         51     2     3  0.255000E+00  0.255000E+00  0.500000E-02
     1         51     2     3  0.255000E+00  0.255000E+00  0.500000E-02
     1         51     2     3  0.255000E+00  0.255000E+00  0.500000E-02
     1         51     2     3  0.255000E+00  0.255000E+00  0.500000E-02
     1         51     2     3  0.255000E+00  0.255000E+00  0.500000E-02
     1         51     2     3  0.255000E+00  0.255000E+00  0.500000E-02
     1         52     1     2  0.260000E+00  0.260000E+00  0.500000E-02
     1         52     2     2  0.260000E+00  0.260000E+00  0.500000E-02
     1         52     2     2  0.260000E+00  0.260000E+00  0.500000E-02
     1         52     2     2  0.260000E+00  0.260000E+00  0.500000E-02
     1         52     2     2  0.260000E+00  0.260000E+00  0.500000E-02
     1         52     2     2  0.260000E+00  0.260000E+00  0.500000E-02
     1         53     1     2  0.265000E+00  0.265000E+00  0.500000E-02
     1         53     2     2  0.265000E+00  0.265000E+00  0.500000E-02
     1         53     2     2  0.265000E+00  0.265000E+00  0.500000E-02
     1         53     2     2  0.265000E+00  0.265000E+00  0.500000E-02
     1         53     2     2  0.265000E+00  0.265000E+00  0.500000E-02
     1         53     2     2  0.265000E+00  0.265000E+00  0.500000E-02
     1         54     1     2  0.270000E+00  0.270000E+00  0.500000E-02
     1         54     2     2  0.270000E+00  0.270000E+00  0.500000E-02
     1         54     2     2  0.270000E+00  0.270000E+00  0.500000E-02
     1         54     2     2  0.270000E+00  0.270000E+00  0.500000E-02
     1         54     2     2  0.270000E+00  0.270000E+00  0.500000E-02
     1         54     2     2  0.270000E+00  0.270000E+00  0.500000E-02
     1         55     1     2  0.275000E+00  0.275000E+00  0.500000E-02
     1         55     2     2  0.275000E+00  0.275000E+00  0.500000E-02
     1         55     2     2  0.275000E+00  0.275000E+00  0.500000E-02
     1         55     2     2  0.275000E+00  0.275000E+00  0.500000E-02
     1         55     2     2  0.275000E+00  0.275000E+00  0.500000E-02
     1         56     1     2  0.280000E+00  0.280000E+00  0.500000E-02
     1         56     2     2  0.280000E+00  0.280000E+00  0.500000E-02
     1         56     2     2  0.280000E+00  0.280000E+00  0.500000E-02
     1         56     2     2  0.280000E+00  0.280000E+00  0.500000E-02
     1         56     2     2  0.280000E+00  0.280000E+00  0.500000E-02
     1         57     1     2  0.285000E+00  0.285000E+00  0.500000E-02
     1         57     2     2  0.285000E+00  0.285000E+00  0.500000E-02
     1         57     2     2  0.285000E+00  0.285000E+00  0.500000E-02
     1         57     2     2  0.285000E+00  0.285000E+00  0.500000E-02
     1         57     2     2  0.285000E+00  0.285000E+00  0.500000E-02
     1         58     1     2  0.290000E+00  0.290000E+00  0.500000E-02
     1         58     2     2  0.290000E+00  0.290000E+00  0.500000E-02
     1         58     2     2  0.290000E+00  0.290000E+00  0.500000E-02
     1         58     2     2  0.290000E+00  0.290000E+00  0.500000E-02
     1         59     1     2  0.295000E+00  0.295000E+00  0.500000E-02
     1         59     2     2  0.295000E+00  0.295000E+00  0.500000E-02
     1         59     2     2  0.295000E+00  0.295000E+00  0.500000E-02
     1         59     2     2  0.295000E+00  0.295000E+00  0.500000E-02
     1         59     2     2  0.295000E+00  0.295000E+00  0.500000E-02
     1         60     1     2  0.300000E+00  0.300000E+00  0.500000E-02
     1         60     2     2  0.300000E+00  0.300000E+00  0.500000E-02
     1         60     2     2  0.300000E+00  0.300000E+00  0.500000E-02
     1         60     2     2  0.300000E+00  0.300000E+00  0.500000E-02
     1         60     2     2  0.300000E+00  0.300000E+00  0.500000E-02
     1         60     2     2  0.300000E+00  0.300000E+00  0.500000E-02
     1         61     1     2  0.305000E+00  0.305000E+00  0.500000E-02
     1         61     2     2  0.305000E+00  0.305000E+00  0.500000E-02
     1         61     2     2  0.305000E+00  0.305000E+00  0.500000E-02
     1         61     2     2  0.305000E+00  0.305000E+00  0.500000E-02
     1         61     2     2  0.305000E+00  0.305000E+00  0.500000E-02
     1         62     1     2  0.310000E+00  0.310000E+00  0.500000E-02
     1         62     2     2  0.310000E+00  0.310000E+00  0.500000E-02
     1         62     2     2  0.310000E+00  0.310000E+00  0.500000E-02
     1         62     2     2  0.310000E+00  0.310000E+00  0.500000E-02
     1         62     2     2  0.310000E+00  0.310000E+00  0.500000E-02
     1         63     1     2  0.315000E+00  0.315000E+00  0.500000E-02
     1         63     2     2  0.315000E+00  0.315000E+00  0.500000E-02
     1         63     2     2  0.315000E+00  0.315000E+00  0.500000E-02
     1         63     2     2  0.315000E+00  0.315000E+00  0.500000E-02
     1         63     2     2  0.315000E+00  0.315000E+00  0.500000E-02
     1         63     2     2  0.315000E+00  0.315000E+00  0.500000E-02
     1         64     1     2  0.320000E+00  0.320000E+00  0.500000E-02
     1         64     2     2  0.320000E+00  0.320000E+00  0.500000E-02
     1         64     2     2  0.320000E+00  0.320000E+00  0.500000E-02
     1         64     2     2  0.320000E+00  0.320000E+00  0.500000E-02
     1         64     2     2  0.320000E+00  0.320000E+00  0.500000E-02
     1         64     2     2  0.320000E+00  0.320000E+00  0.500000E-02
     1         65     1     2  0.325000E+00  0.325000E+00  0.500000E-02
     1         65     2     2  0.325000E+00  0.325000E+00  0.500000E-02
     1         65     2     2  0.325000E+00  0.325000E+00  0.500000E-02
     1         65     2     2  0.325000E+00  0.325000E+00  0.500000E-02
     1         65     2     2  0.325000E+00  0.325000E+00  0.500000E-02
     1         65     2     2  0.325000E+00  0.325000E+00  0.500000E-02
     1         65     2     2  0.325000E+00  0.325000E+00  0.500000E-02
     1         66     1     2  0.330000E+00  0.330000E+00  0.500000E-02
     1         66     2     2  0.330000E+00  0.330000E+00  0.500000E-02
     1         66     2     2  0.330000E+00  0.330000E+00  0.500000E-02
     1         66     2     2  0.330000E+00  0.330000E+00  0.500000E-02
     1         66     2     2  0.330000E+00  0.330000E+00  0.500000E-02
     1         66     2     2  0.330000E+00  0.330000E+00  0.500000E-02
     1         66     2     2  0.330000E+00  0.330000E+00  0.500000E-02
     1         66     2     2  0.330000E+00  0.330000E+00  0.500000E-02
     1         66     2     2  0.330000E+00  0.330000E+00  0.500000E-02
     1         67     1     2  0.335000E+00  0.335000E+00  0.500000E-02
     1         67     2     2  0.335000E+00  0.335000E+00  0.500000E-02
     1         67     2     2  0.335000E+00  0.335000E+00  0.500000E-02
     1         67     2     2  0.335000E+00  0.335000E+00  0.500000E-02
     1         67     2     2  0.335000E+00  0.335000E+00  0.500000E-02
     1         67     2     2  0.335000E+00  0.335000E+00  0.500000E-02
     1         68     1     2  0.340000E+00  0.340000E+00  0.500000E-02
     1         68     2     2  0.340000E+00  0.340000E+00  0.500000E-02
     1         68     2     2  0.340000E+00  0.340000E+00  0.500000E-02
     1         68     2     2  0.340000E+00  0.340000E+00  0.500000E-02
     1         68     2     2  0.340000E+00  0.340000E+00  0.500000E-02
     1         68     2     2  0.340000E+00  0.340000E+00  0.500000E-02
     1         68     2     2  0.340000E+00  0.340000E+00  0.500000E-02
     1         69     1     2  0.345000E+00  0.345000E+00  0.500000E-02
     1         69     2     2  0.345000E+00  0.345000E+00  0.500000E-02
     1         69     2     2  0.345000E+00  0.345000E+00  0.500000E-02
     1         69     2     2  0.345000E+00  0.345000E+00  0.500000E-02
     1         69     2     2  0.345000E+00  0.345000E+00  0.500000E-02
     1         69     2     2  0.345000E+00  0.345000E+00  0.500000E-02
     1         69     2     2  0.345000E+00  0.345000E+00  0.500000E-02
     1         70     1     2  0.350000E+00  0.350000E+00  0.500000E-02
     1         70     2     2  0.350000E+00  0.350000E+00  0.500000E-02
     1         70     2     2  0.350000E+00  0.350000E+00  0.500000E-02
     1         70     2     2  0.350000E+00  0.350000E+00  0.500000E-02
     1         70     2     2  0.350000E+00  0.350000E+00  0.500000E-02
     1         70     2     2  0.350000E+00  0.350000E+00  0.500000E-02
     1         70     2     2  0.350000E+00  0.350000E+00  0.500000E-02
     1         71     1     2  0.355000E+00  0.355000E+00  0.500000E-02
     1         71     2     2  0.355000E+00  0.355000E+00  0.500000E-02
     1         71     2     2  0.355000E+00  0.355000E+00  0.500000E-02
     1         71     2     2  0.355000E+00  0.355000E+00  0.500000E-02
     1         71     2     2  0.355000E+00  0.355000E+00  0.500000E-02
     1         71     2     2  0.355000E+00  0.355000E+00  0.500000E-02
     1         71     2     2  0.355000E+00  0.355000E+00  0.500000E-02
     1         72     1     2  0.360000E+00  0.360000E+00  0.500000E-02
     1         72     2     2  0.360000E+00  0.360000E+00  0.500000E-02
     1         72     2     2  0.360000E+00  0.360000E+00  0.500000E-02
     1         72     2     2  0.360000E+00  0.360000E+00  0.500000E-02
     1         72     2     2  0.360000E+00  0.360000E+00  0.500000E-02
     1         72     2     2  0.360000E+00  0.360000E+00  0.500000E-02
     1         73     1     2  0.365000E+00  0.365000E+00  0.500000E-02
     1         73     2     2  0.365000E+00  0.365000E+00  0.500000E-02
     1         73     2     2  0.365000E+00  0.365000E+00  0.500000E-02
     1         73     2     2  0.365000E+00  0.365000E+00  0.500000E-02
     1         73     2     2  0.365000E+00  0.365000E+00  0.500000E-02
     1         73     2     2  0.365000E+00  0.365000E+00  0.500000E-02
     1         73     2     2  0.365000E+00  0.365000E+00  0.500000E-02
     1         74     1     2  0.370000E+00  0.370000E+00  0.500000E-02
     1         74     2     2  0.370000E+00  0.370000E+00  0.500000E-02
     1         74     2     2  0.370000E+00  0.370000E+00  0.500000E-02
     1         74     2     2  0.370000E+00  0.370000E+00  0.500000E-02
     1         74     2     2  0.370000E+00  0.370000E+00  0.500000E-02
     1         74     2     2  0.370000E+00  0.370000E+00  0.500000E-02
     1         75     1     2  0.375000E+00  0.375000E+00  0.500000E-02
     1         75     2     2  0.375000E+00  0.375000E+00  0.500000E-02
     1         75     2     2  0.375000E+00  0.375000E+00  0.500000E-02
     1         75     2     2  0.375000E+00  0.375000E+00  0.500000E-02
     1         75     2     2  0.375000E+00  0.375000E+00  0.500000E-02
     1         75     2     2  0.375000E+00  0.375000E+00  0.500000E-02
     1         76     1     2  0.380000E+00  0.380000E+00  0.500000E-02
     1         76     2     2  0.380000E+00  0.380000E+00  0.500000E-02
     1         76     2     2  0.380000E+00  0.380000E+00  0.500000E-02
     1         76     2     2  0.380000E+00  0.380000E+00  0.500000E-02
     1         76     2     2  0.380000E+00  0.380000E+00  0.500000E-02
     1         76     2     2  0.380000E+00  0.380000E+00  0.500000E-02
     1         77     1     2  0.385000E+00  0.385000E+00  0.500000E-02
     1         77     2     2  0.385000E+00  0.385000E+00  0.500000E-02
     1         77     2     2  0.385000E+00  0.385000E+00  0.500000E-02
     1         77     2     2  0.385000E+00  0.385000E+00  0.500000E-02
     1         77     2     2  0.385000E+00  0.385000E+00  0.500000E-02
     1         77     2     2  0.385000E+00  0.385000E+00  0.500000E-02
     1         78     1     2  0.390000E+00  0.390000E+00  0.500000E-02
     1         78     2     2  0.390000E+00  0.390000E+00  0.500000E-02
     1         78     2     2  0.390000E+00  0.390000E+00  0.500000E-02
     1         78     2     2  0.390000E+00  0.390000E+00  0.500000E-02
     1         78     2     2  0.390000E+00  0.390000E+00  0.500000E-02
     1         79     1     2  0.395000E+00  0.395000E+00  0.500000E-02
     1         79     2     2  0.395000E+00  0.395000E+00  0.500000E-02
     1         79     2     2  0.395000E+00  0.395000E+00  0.500000E-02
     1         79     2     2  0.395000E+00  0.395000E+00  0.500000E-02
     1         79     2     2  0.395000E+00  0.395000E+00  0.500000E-02
     1         80     1     2  0.400000E+00  0.400000E+00  0.500000E-02
     1         80     2     2  0.400000E+00  0.400000E+00  0.500000E-02
     1         80     2     2  0.400000E+00  0.400000E+00  0.500000E-02
     1         80     2     2  0.400000E+00  0.400000E+00  0.500000E-02
     1         80     2     2  0.400000E+00  0.400000E+00  0.500000E-02
     1         81     1     2  0.405000E+00  0.405000E+00  0.500000E-02
     1         81     2     2  0.405000E+00  0.405000E+00  0.500000E-02
     1         81     2     2  0.405000E+00  0.405000E+00  0.500000E-02
     1         81     2     2  0.405000E+00  0.405000E+00  0.500000E-02
     1         81     2     2  0.405000E+00  0.405000E+00  0.500000E-02
     1         82     1     2  0.410000E+00  0.410000E+00  0.500000E-02
     1         82     2     2  0.410000E+00  0.410000E+00  0.500000E-02
     1         82     2     2  0.410000E+00  0.410000E+00  0.500000E-02
     1         82     2     2  0.410000E+00  0.410000E+00  0.500000E-02
     1         82     2     2  0.410000E+00  0.410000E+00  0.500000E-02
     1         83     1     2  0.415000E+00  0.415000E+00  0.500000E-02
     1         83     2     2  0.415000E+00  0.415000E+00  0.500000E-02
     1         83     2     2  0.415000E+00  0.415000E+00  0.500000E-02
     1         83     2     2  0.415000E+00  0.415000E+00  0.500000E-02
     1         83     2     2  0.415000E+00  0.415000E+00  0.500000E-02
     1         83     2     2  0.415000E+00  0.415000E+00  0.500000E-02
     1         83     2     2  0.415000E+00  0.415000E+00  0.500000E-02
     1         83     2     2  0.415000E+00  0.415000E+00  0.500000E-02
     1         83     2     2  0.415000E+00  0.415000E+00  0.500000E-02
     1         83     2     2  0.415000E+00  0.415000E+00  0.500000E-02
     1         84     1     2  0.420000E+00  0.420000E+00  0.500000E-02
     1         84     2     2  0.420000E+00  0.420000E+00  0.500000E-02
     1         84     2     2  0.420000E+00  0.420000E+00  0.500000E-02
     1         84     2     2  0.420000E+00  0.420000E+00  0.500000E-02
     1         84     2     2  0.420000E+00  0.420000E+00  0.500000E-02
     1         85     1     2  0.425000E+00  0.425000E+00  0.500000E-02
     1         85     2     2  0.425000E+00  0.425000E+00  0.500000E-02
     1         85     2     2  0.425000E+00  0.425000E+00  0.500000E-02
     1         85     2     2  0.425000E+00  0.425000E+00  0.500000E-02
     1         85     2     2  0.425000E+00  0.425000E+00  0.500000E-02
     1         85     2     2  0.425000E+00  0.425000E+00  0.500000E-02
     1         86     1     2  0.430000E+00  0.430000E+00  0.500000E-02
     1         86     2     2  0.430000E+00  0.430000E+00  0.500000E-02
     1         86     2     2  0.430000E+00  0.430000E+00  0.500000E-02
     1         86     2     2  0.430000E+00  0.430000E+00  0.500000E-02
     1         86     2     2  0.430000E+00  0.430000E+00  0.500000E-02
     1         86     2     2  0.430000E+00  0.430000E+00  0.500000E-02
     1         86     2     2  0.430000E+00  0.430000E+00  0.500000E-02
     1         87     1     2  0.435000E+00  0.435000E+00  0.500000E-02
     1         87     2     2  0.435000E+00  0.435000E+00  0.500000E-02
     1         87     2     2  0.435000E+00  0.435000E+00  0.500000E-02
     1         87     2     2  0.435000E+00  0.435000E+00  0.500000E-02
     1         87     2     2  0.435000E+00  0.435000E+00  0.500000E-02
     1         87     2     2  0.435000E+00  0.435000E+00  0.500000E-02
     1         87     2     2  0.435000E+00  0.435000E+00  0.500000E-02
     1         87     2     2  0.435000E+00  0.435000E+00  0.500000E-02
     1         88     1     2  0.440000E+00  0.440000E+00  0.500000E-02
     1         88     2     2  0.440000E+00  0.440000E+00  0.500000E-02
     1         88     2     2  0.440000E+00  0.440000E+00  0.500000E-02
     1         88     2     2  0.440000E+00  0.440000E+00  0.500000E-02
     1         88     2     2  0.440000E+00  0.440000E+00  0.500000E-02
     1         88     2     2  0.440000E+00  0.440000E+00  0.500000E-02
     1         88     2     2  0.440000E+00  0.440000E+00  0.500000E-02
     1         88     2     2  0.440000E+00  0.440000E+00  0.500000E-02
     1         88     2     2  0.440000E+00  0.440000E+00  0.500000E-02
     1         88     2     2  0.440000E+00  0.440000E+00  0.500000E-02
     1         89     1     2  0.445000E+00  0.445000E+00  0.500000E-02
     1         89     2     2  0.445000E+00  0.445000E+00  0.500000E-02
     1         89     2     2  0.445000E+00  0.445000E+00  0.500000E-02
     1         89     2     2  0.445000E+00  0.445000E+00  0.500000E-02
     1         89     2     2  0.445000E+00  0.445000E+00  0.500000E-02
     1         89     2     2  0.445000E+00  0.445000E+00  0.500000E-02
     1         89     2     2  0.445000E+00  0.445000E+00  0.500000E-02
     1         89     2     2  0.445000E+00  0.445000E+00  0.500000E-02
     1         90     1     2  0.450000E+00  0.450000E+00  0.500000E-02
     1         90     2     2  0.450000E+00  0.450000E+00  0.500000E-02
     1         90     2     2  0.450000E+00  0.450000E+00  0.500000E-02
     1         90     2     2  0.450000E+00  0.450000E+00  0.500000E-02
     1         90     2     2  0.450000E+00  0.450000E+00  0.500000E-02
     1         90     2     2  0.450000E+00  0.450000E+00  0.500000E-02
     1         90     2     2  0.450000E+00  0.450000E+00  0.500000E-02
     1         90     2     2  0.450000E+00  0.450000E+00  0.500000E-02
     1         90     2     2  0.450000E+00  0.450000E+00  0.500000E-02
     1         90     2     2  0.450000E+00  0.450000E+00  0.500000E-02
     1         90     2     2  0.450000E+00  0.450000E+00  0.500000E-02
     1         90     2     2  0.450000E+00  0.450000E+00  0.500000E-02
     1         90     2     2  0.450000E+00  0.450000E+00  0.500000E-02
     1         91     1     2  0.455000E+00  0.455000E+00  0.500000E-02
     1         91     2     2  0.455000E+00  0.455000E+00  0.500000E-02
     1         91     2     2  0.455000E+00  0.455000E+00  0.500000E-02
     1         91     2     2  0.455000E+00  0.455000E+00  0.500000E-02
     1         91     2     2  0.455000E+00  0.455000E+00  0.500000E-02
     1         91     2     2  0.455000E+00  0.455000E+00  0.500000E-02
     1         91     2     2  0.455000E+00  0.455000E+00  0.500000E-02
     1         91     2     2  0.455000E+00  0.455000E+00  0.500000E-02
     1         91     2     2  0.455000E+00  0.455000E+00  0.500000E-02
     1         91     2     2  0.455000E+00  0.455000E+00  0.500000E-02
     1         91     2     2  0.455000E+00  0.455000E+00  0.500000E-02
     1         91     2     2  0.455000E+00  0.455000E+00  0.500000E-02
     1         92     1     2  0.460000E+00  0.460000E+00  0.500000E-02
     1         92     2     2  0.460000E+00  0.460000E+00  0.500000E-02
     1         92     2     2  0.460000E+00  0.460000E+00  0.500000E-02
     1         92     2     2  0.460000E+00  0.460000E+00  0.500000E-02
     1         92     2     2  0.460000E+00  0.460000E+00  0.500000E-02
     1         92     2     2  0.460000E+00  0.460000E+00  0.500000E-02
     1         92     2     2  0.460000E+00  0.460000E+00  0.500000E-02
     1         92     2     2  0.460000E+00  0.460000E+00  0.500000E-02
     1         92     2     2  0.460000E+00  0.460000E+00  0.500000E-02
     1         92     2     2  0.460000E+00  0.460000E+00  0.500000E-02
     1         93     1     2  0.465000E+00  0.465000E+00  0.500000E-02
     1         93     2     2  0.465000E+00  0.465000E+00  0.500000E-02
     1         93     2     2  0.465000E+00  0.465000E+00  0.500000E-02
     1         93     2     2  0.465000E+00  0.465000E+00  0.500000E-02
     1         93     2     2  0.465000E+00  0.465000E+00  0.500000E-02
     1         93     2     2  0.465000E+00  0.465000E+00  0.500000E-02
     1         93     2     2  0.465000E+00  0.465000E+00  0.500000E-02
     1         93     2     2  0.465000E+00  0.465000E+00  0.500000E-02
     1         93     2     2  0.465000E+00  0.465000E+00  0.500000E-02
     1         93     2     2  0.465000E+00  0.465000E+00  0.500000E-02
     1         93     2     2  0.465000E+00  0.465000E+00  0.500000E-02
     1         93     2     2  0.465000E+00  0.465000E+00  0.500000E-02
     1         93     2     2  0.465000E+00  0.465000E+00  0.500000E-02
     1         93     2     2  0.465000E+00  0.465000E+00  0.500000E-02
     1         93     2     2  0.465000E+00  0.465000E+00  0.500000E-02
     1         93     2     2  0.465000E+00  0.465000E+00  0.500000E-02
     1         94     1     2  0.470000E+00  0.470000E+00  0.500000E-02
     1         94     2     2  0.470000E+00  0.470000E+00  0.500000E-02
     1         94     2     2  0.470000E+00  0.470000E+00  0.500000E-02
     1         94     2     2  0.470000E+00  0.470000E+00  0.500000E-02
     1         94     2     2  0.470000E+00  0.470000E+00  0.500000E-02
     1         94     2     2  0.470000E+00  0.470000E+00  0.500000E-02
     1         94     2     2  0.470000E+00  0.470000E+00  0.500000E-02
     1         94     2     2  0.470000E+00  0.470000E+00  0.500000E-02
     1         94     2     2  0.470000E+00  0.470000E+00  0.500000E-02
     1         94     2     2  0.470000E+00  0.470000E+00  0.500000E-02
     1         94     2     2  0.470000E+00  0.470000E+00  0.500000E-02
     1         95     1     2  0.475000E+00  0.475000E+00  0.500000E-02
     1         95     2     2  0.475000E+00  0.475000E+00  0.500000E-02
     1         95     2     2  0.475000E+00  0.475000E+00  0.500000E-02
     1         95     2     2  0.475000E+00  0.475000E+00  0.500000E-02
     1         95     2     2  0.475000E+00  0.475000E+00  0.500000E-02
     1         95     2     2  0.475000E+00  0.475000E+00  0.500000E-02
     1         95     2     2  0.475000E+00  0.475000E+00  0.500000E-02
     1         95     2     2  0.475000E+00  0.475000E+00  0.500000E-02
     1         95     2     2  0.475000E+00  0.475000E+00  0.500000E-02
     1         95     2     2  0.475000E+00  0.475000E+00  0.500000E-02
     1         95     2     2  0.475000E+00  0.475000E+00  0.500000E-02
     1         96     1     2  0.480000E+00  0.480000E+00  0.500000E-02
     1         96     2     2  0.480000E+00  0.480000E+00  0.500000E-02
     1         96     2     2  0.480000E+00  0.480000E+00  0.500000E-02
     1         96     2     2  0.480000E+00  0.480000E+00  0.500000E-02
     1         96     2     2  0.480000E+00  0.480000E+00  0.500000E-02
     1         96     2     2  0.480000E+00  0.480000E+00  0.500000E-02
     1         96     2     2  0.480000E+00  0.480000E+00  0.500000E-02
     1         96     2     2  0.480000E+00  0.480000E+00  0.500000E-02
     1         96     2     2  0.480000E+00  0.480000E+00  0.500000E-02
     1         96     2     2  0.480000E+00  0.480000E+00  0.500000E-02
     1         96     2     2  0.480000E+00  0.480000E+00  0.500000E-02
     1         96     2     2  0.480000E+00  0.480000E+00  0.500000E-02
     1         97     1     2  0.485000E+00  0.485000E+00  0.500000E-02
     1         97     2     2  0.485000E+00  0.485000E+00  0.500000E-02
     1         97     2     2  0.485000E+00  0.485000E+00  0.500000E-02
     1         97     2     2  0.485000E+00  0.485000E+00  0.500000E-02
     1         97     2     2  0.485000E+00  0.485000E+00  0.500000E-02
     1         97     2     2  0.485000E+00  0.485000E+00  0.500000E-02
     1         97     2     2  0.485000E+00  0.485000E+00  0.500000E-02
     1         97     2     2  0.485000E+00  0.485000E+00  0.500000E-02
     1         97     2     2  0.485000E+00  0.485000E+00  0.500000E-02
     1         98     1     2  0.490000E+00  0.490000E+00  0.500000E-02
     1         98     2     2  0.490000E+00  0.490000E+00  0.500000E-02
     1         98     2     2  0.490000E+00  0.490000E+00  0.500000E-02
     1         98     2     2  0.490000E+00  0.490000E+00  0.500000E-02
     1         98     2     2  0.490000E+00  0.490000E+00  0.500000E-02
     1         98     2     2  0.490000E+00  0.490000E+00  0.500000E-02
     1         98     2     2  0.490000E+00  0.490000E+00  0.500000E-02
     1         98     2     2  0.490000E+00  0.490000E+00  0.500000E-02
     1         98     2     2  0.490000E+00  0.490000E+00  0.500000E-02
     1         98     2     2  0.490000E+00  0.490000E+00  0.500000E-02
     1         98     2     2  0.490000E+00  0.490000E+00  0.500000E-02
     1         98     2     2  0.490000E+00  0.490000E+00  0.500000E-02
     1         98     2     2  0.490000E+00  0.490000E+00  0.500000E-02
     1         98     2     2  0.490000E+00  0.490000E+00  0.500000E-02
     1         98     2     2  0.490000E+00  0.490000E+00  0.500000E-02
     1         98     2     2  0.490000E+00  0.490000E+00  0.500000E-02
     1         99     1     2  0.495000E+00  0.495000E+00  0.500000E-02
     1         99     2     2  0.495000E+00  0.495000E+00  0.500000E-02
     1         99     2     2  0.495000E+00  0.495000E+00  0.500000E-02
     1         99     2     2  0.495000E+00  0.495000E+00  0.500000E-02
     1         99     2     2  0.495000E+00  0.495000E+00  0.500000E-02
     1         99     2     2  0.495000E+00  0.495000E+00  0.500000E-02
     1         99     2     2  0.495000E+00  0.495000E+00  0.500000E-02
     1         99     2     2  0.495000E+00  0.495000E+00  0.500000E-02
     1         99     2     2  0.495000E+00  0.495000E+00  0.500000E-02
     1         99     2     2  0.495000E+00  0.495000E+00  0.500000E-02
     1         99     2     2  0.495000E+00  0.495000E+00  0.500000E-02
     1        100     1     2  0.500000E+00  0.500000E+00  0.500000E-02
     1        100     2     2  0.500000E+00  0.500000E+00  0.500000E-02
     1        100     2     2  0.500000E+00  0.500000E+00  0.500000E-02
     1        100     2     2  0.500000E+00  0.500000E+00  0.500000E-02
     1        100     2     2  0.500000E+00  0.500000E+00  0.500000E-02
     1        100     2     2  0.500000E+00  0.500000E+00  0.500000E-02
     1        100     2     2  0.500000E+00  0.500000E+00  0.500000E-02
     1        100     2     2  0.500000E+00  0.500000E+00  0.500000E-02
     1        100     2     2  0.500000E+00  0.500000E+00  0.500000E-02
     1        100     2     2  0.500000E+00  0.500000E+00  0.500000E-02
     1        100     2     2  0.500000E+00  0.500000E+00  0.500000E-02
     1        100     2     2  0.500000E+00  0.500000E+00  0.500000E-02
     1        100     2     2  0.500000E+00  0.500000E+00  0.500000E-02
     1        101     1     2  0.505000E+00  0.505000E+00  0.500000E-02
     1        101     2     2  0.505000E+00  0.505000E+00  0.500000E-02
     1        101     2     2  0.505000E+00  0.505000E+00  0.500000E-02
     1        101     2     2  0.505000E+00  0.505000E+00  0.500000E-02
     1        101     2     2  0.505000E+00  0.505000E+00  0.500000E-02
     1        101     2     2  0.505000E+00  0.505000E+00  0.500000E-02
     1        101     2     2  0.505000E+00  0.505000E+00  0.500000E-02
     1        102     1     2  0.510000E+00  0.510000E+00  0.500000E-02
     1        102     2     2  0.510000E+00  0.510000E+00  0.500000E-02
     1        102     2     2  0.510000E+00  0.510000E+00  0.500000E-02
     1        102     2     2  0.510000E+00  0.510000E+00  0.500000E-02
     1        102     2     2  0.510000E+00  0.510000E+00  0.500000E-02
     1        102     2     2  0.510000E+00  0.510000E+00  0.500000E-02
     1        102     2     2  0.510000E+00  0.510000E+00  0.500000E-02
     1        102     2     2  0.510000E+00  0.510000E+00  0.500000E-02
     1        102     2     2  0.510000E+00  0.510000E+00  0.500000E-02
     1        103     1     2  0.515000E+00  0.515000E+00  0.500000E-02
     1        103     2     2  0.515000E+00  0.515000E+00  0.500000E-02
     1        103     2     2  0.515000E+00  0.515000E+00  0.500000E-02
     1        103     2     2  0.515000E+00  0.515000E+00  0.500000E-02
     1        103     2     2  0.515000E+00  0.515000E+00  0.500000E-02
     1        103     2     2  0.515000E+00  0.515000E+00  0.500000E-02
     1        103     2     2  0.515000E+00  0.515000E+00  0.500000E-02
     1        104     1     2  0.520000E+00  0.520000E+00  0.500000E-02
     1        104     2     2  0.520000E+00  0.520000E+00  0.500000E-02
     1        104     2     2  0.520000E+00  0.520000E+00  0.500000E-02
     1        104     2     2  0.520000E+00  0.520000E+00  0.500000E-02
     1        104     2     2  0.520000E+00  0.520000E+00  0.500000E-02
     1        104     2     2  0.520000E+00  0.520000E+00  0.500000E-02
     1        104     2     2  0.520000E+00  0.520000E+00  0.500000E-02
     1        104     2     2  0.520000E+00  0.520000E+00  0.500000E-02
     1        104     2     2  0.520000E+00  0.520000E+00  0.500000E-02
     1        105     1     2  0.525000E+00  0.525000E+00  0.500000E-02
     1        105     2     2  0.525000E+00  0.525000E+00  0.500000E-02
     1        105     2     2  0.525000E+00  0.525000E+00  0.500000E-02
     1        105     2     2  0.525000E+00  0.525000E+00  0.500000E-02
     1        105     2     2  0.525000E+00  0.525000E+00  0.500000E-02
     1        105     2     2  0.525000E+00  0.525000E+00  0.500000E-02
     1        105     2     2  0.525000E+00  0.525000E+00  0.500000E-02
     1        105     2     2  0.525000E+00  0.525000E+00  0.500000E-02
     1        105     2     2  0.525000E+00  0.525000E+00  0.500000E-02
     1        106     1     2  0.530000E+00  0.530000E+00  0.500000E-02
     1        106     2     2  0.530000E+00  0.530000E+00  0.500000E-02
     1        106     2     2  0.530000E+00  0.530000E+00  0.500000E-02
     1        106     2     2  0.530000E+00  0.530000E+00  0.500000E-02
     1        106     2     2  0.530000E+00  0.530000E+00  0.500000E-02
     1        106     2     2  0.530000E+00  0.530000E+00  0.500000E-02
     1        106     2     2  0.530000E+00  0.530000E+00  0.500000E-02
     1        106     2     2  0.530000E+00  0.530000E+00  0.500000E-02
     1        106     2     2  0.530000E+00  0.530000E+00  0.500000E-02
     1        106     2     2  0.530000E+00  0.530000E+00  0.500000E-02
     1        106     2     2  0.530000E+00  0.530000E+00  0.500000E-02
     1        106     2     2  0.530000E+00  0.530000E+00  0.500000E-02
     1        106     2     2  0.530000E+00  0.530000E+00  0.500000E-02
     1        106     2     2  0.530000E+00  0.530000E+00  0.500000E-02
     1        106     2     2  0.530000E+00  0.530000E+00  0.500000E-02
     1        106     2     2  0.530000E+00  0.530000E+00  0.500000E-02
     1        106     2     2  0.530000E+00  0.530000E+00  0.500000E-02
     1        106     2     2  0.530000E+00  0.530000E+00  0.500000E-02
     1        106     2     2  0.530000E+00  0.530000E+00  0.500000E-02
     1        106     2     2  0.530000E+00  0.530000E+00  0.500000E-02
     1        106     2     2  0.530000E+00  0.530000E+00  0.500000E-02
     1        106     2     2  0.530000E+00  0.530000E+00  0.500000E-02
     1        106     2     2  0.530000E+00  0.530000E+00  0.500000E-02
     1        106     2     2  0.530000E+00  0.530000E+00  0.500000E-02
     1        106     2     2  0.530000E+00  0.530000E+00  0.500000E-02
     1        107     1     2  0.535000E+00  0.535000E+00  0.500000E-02
     1        107     2     2  0.535000E+00  0.535000E+00  0.500000E-02
     1        107     2     2  0.535000E+00  0.535000E+00  0.500000E-02
     1        107     2     2  0.535000E+00  0.535000E+00  0.500000E-02
     1        107     2     2  0.535000E+00  0.535000E+00  0.500000E-02
     1        107     2     2  0.535000E+00  0.535000E+00  0.500000E-02
     1        107     2     2  0.535000E+00  0.535000E+00  0.500000E-02
     1        107     2     2  0.535000E+00  0.535000E+00  0.500000E-02
     1        107     2     2  0.535000E+00  0.535000E+00  0.500000E-02
     1        107     2     2  0.535000E+00  0.535000E+00  0.500000E-02
     1        107     2     2  0.535000E+00  0.535000E+00  0.500000E-02
     1        107     2     2  0.535000E+00  0.535000E+00  0.500000E-02
     1        107     2     2  0.535000E+00  0.535000E+00  0.500000E-02
     1        107     2     2  0.535000E+00  0.535000E+00  0.500000E-02
     1        107     2     2  0.535000E+00  0.535000E+00  0.500000E-02
     1        107     2     2  0.535000E+00  0.535000E+00  0.500000E-02
     1        107     2     2  0.535000E+00  0.535000E+00  0.500000E-02
     1        107     2     2  0.535000E+00  0.535000E+00  0.500000E-02
     1        107     2     2  0.535000E+00  0.535000E+00  0.500000E-02
     1        107     2     2  0.535000E+00  0.535000E+00  0.500000E-02
     1        107     2     2  0.535000E+00  0.535000E+00  0.500000E-02
     1        107     2     2  0.535000E+00  0.535000E+00  0.500000E-02
     1        107     2     2  0.535000E+00  0.535000E+00  0.500000E-02
     1        107     2     2  0.535000E+00  0.535000E+00  0.500000E-02
     1        107     2     2  0.535000E+00  0.535000E+00  0.500000E-02
     1        107     2     2  0.535000E+00  0.535000E+00  0.500000E-02
     1        107     2     2  0.535000E+00  0.535000E+00  0.500000E-02
     1        107     2     2  0.535000E+00  0.535000E+00  0.500000E-02
     1        107     2     2  0.535000E+00  0.535000E+00  0.500000E-02
     1        107     2     2  0.535000E+00  0.535000E+00  0.500000E-02
     1        108     1     2  0.540000E+00  0.540000E+00  0.500000E-02
     1        108     2     2  0.540000E+00  0.540000E+00  0.500000E-02
     1        108     2     3  0.540000E+00  0.540000E+00  0.500000E-02
     1        108     2     3  0.540000E+00  0.540000E+00  0.500000E-02
     1        108     2     3  0.540000E+00  0.540000E+00  0.500000E-02
     1        108     2     2  0.540000E+00  0.540000E+00  0.500000E-02
     1        108     2     2  0.540000E+00  0.540000E+00  0.500000E-02
     1        108     2     2  0.540000E+00  0.540000E+00  0.500000E-02
     1        108     2     2  0.540000E+00  0.540000E+00  0.500000E-02
     1        108     2     2  0.540000E+00  0.540000E+00  0.500000E-02
     1        108     2     2  0.540000E+00  0.540000E+00  0.500000E-02
     1        108     2     2  0.540000E+00  0.540000E+00  0.500000E-02
     1        108     2     2  0.540000E+00  0.540000E+00  0.500000E-02
     1        108     2     2  0.540000E+00  0.540000E+00  0.500000E-02
     1        108     2     2  0.540000E+00  0.540000E+00  0.500000E-02
     1        108     2     2  0.540000E+00  0.540000E+00  0.500000E-02
     1        108     2     2  0.540000E+00  0.540000E+00  0.500000E-02
     1        108     2     2  0.540000E+00  0.540000E+00  0.500000E-02
     1        108     2     2  0.540000E+00  0.540000E+00  0.500000E-02
     1        108     2     2  0.540000E+00  0.540000E+00  0.500000E-02
     1        108     2     2  0.540000E+00  0.540000E+00  0.500000E-02
     1        108     2     2  0.540000E+00  0.540000E+00  0.500000E-02
     1        108     2     2  0.540000E+00  0.540000E+00  0.500000E-02
     1        108     2     2  0.540000E+00  0.540000E+00  0.500000E-02
     1        108     2     2  0.540000E+00  0.540000E+00  0.500000E-02
     1        108     2     2  0.540000E+00  0.540000E+00  0.500000E-02
     1        108     2     2  0.540000E+00  0.540000E+00  0.500000E-02
     1        108     2     2  0.540000E+00  0.540000E+00  0.500000E-02
     1        108     2     2  0.540000E+00  0.540000E+00  0.500000E-02
     1        108     2     2  0.540000E+00  0.540000E+00  0.500000E-02
     1        109     1     2  0.545000E+00  0.545000E+00  0.500000E-02
     1        109     2     3  0.545000E+00  0.545000E+00  0.500000E-02
     1        109     2     3  0.545000E+00  0.545000E+00  0.500000E-02
     1        109     2     3  0.545000E+00  0.545000E+00  0.500000E-02
     1        109     2     3  0.545000E+00  0.545000E+00  0.500000E-02
     1        109     2     3  0.545000E+00  0.545000E+00  0.500000E-02
     1        109     2     3  0.545000E+00  0.545000E+00  0.500000E-02
     1        109     2     2  0.545000E+00  0.545000E+00  0.500000E-02
     1        109     2     2  0.545000E+00  0.545000E+00  0.500000E-02
     1        109     2     2  0.545000E+00  0.545000E+00  0.500000E-02
     1        109     2     2  0.545000E+00  0.545000E+00  0.500000E-02
     1        109     2     2  0.545000E+00  0.545000E+00  0.500000E-02
     1        109     2     2  0.545000E+00  0.545000E+00  0.500000E-02
     1        109     2     2  0.545000E+00  0.545000E+00  0.500000E-02
     1        109     2     2  0.545000E+00  0.545000E+00  0.500000E-02
     1        109     2     2  0.545000E+00  0.545000E+00  0.500000E-02
     1        109     2     2  0.545000E+00  0.545000E+00  0.500000E-02
     1        109     2     2  0.545000E+00  0.545000E+00  0.500000E-02
     1        109     2     2  0.545000E+00  0.545000E+00  0.500000E-02
     1        109     2     2  0.545000E+00  0.545000E+00  0.500000E-02
     1        109     2     2  0.545000E+00  0.545000E+00  0.500000E-02
     1        109     2     2  0.545000E+00  0.545000E+00  0.500000E-02
     1        109     2     2  0.545000E+00  0.545000E+00  0.500000E-02
     1        109     2     2  0.545000E+00  0.545000E+00  0.500000E-02
     1        109     2     2  0.545000E+00  0.545000E+00  0.500000E-02
     1        109     2     2  0.545000E+00  0.545000E+00  0.500000E-02
     1        109     2     2  0.545000E+00  0.545000E+00  0.500000E-02
     1        109     2     2  0.545000E+00  0.545000E+00  0.500000E-02
     1        109     2     2  0.545000E+00  0.545000E+00  0.500000E-02
     1        109     2     2  0.545000E+00  0.545000E+00  0.500000E-02
     1        110     1     2  0.550000E+00  0.550000E+00  0.500000E-02
     1        110     2     3  0.550000E+00  0.550000E+00  0.500000E-02
     1        110     2     3  0.550000E+00  0.550000E+00  0.500000E-02
     1        110     2     3  0.550000E+00  0.550000E+00  0.500000E-02
     1        110     2     2  0.550000E+00  0.550000E+00  0.500000E-02
     1        110     2     2  0.550000E+00  0.550000E+00  0.500000E-02
     1        110     2     2  0.550000E+00  0.550000E+00  0.500000E-02
     1        110     2     2  0.550000E+00  0.550000E+00  0.500000E-02
     1        110     2     2  0.550000E+00  0.550000E+00  0.500000E-02
     1        110     2     2  0.550000E+00  0.550000E+00  0.500000E-02
     1        110     2     2  0.550000E+00  0.550000E+00  0.500000E-02
     1        110     2     2  0.550000E+00  0.550000E+00  0.500000E-02
     1        110     2     2  0.550000E+00  0.550000E+00  0.500000E-02
     1        110     2     2  0.550000E+00  0.550000E+00  0.500000E-02
     1        110     2     2  0.550000E+00  0.550000E+00  0.500000E-02
     1        110     2     2  0.550000E+00  0.550000E+00  0.500000E-02
     1        110     2     2  0.550000E+00  0.550000E+00  0.500000E-02
     1        110     2     2  0.550000E+00  0.550000E+00  0.500000E-02
     1        110     2     2  0.550000E+00  0.550000E+00  0.500000E-02
     1        110     2     2  0.550000E+00  0.550000E+00  0.500000E-02
     1        110     2     2  0.550000E+00  0.550000E+00  0.500000E-02
     1        110     2     2  0.550000E+00  0.550000E+00  0.500000E-02
     1        110     2     2  0.550000E+00  0.550000E+00  0.500000E-02
     1        110     2     2  0.550000E+00  0.550000E+00  0.500000E-02
     1        110     2     2  0.550000E+00  0.550000E+00  0.500000E-02
     1        110     2     2  0.550000E+00  0.550000E+00  0.500000E-02
     1        110     2     2  0.550000E+00  0.550000E+00  0.500000E-02
     1        110     2     2  0.550000E+00  0.550000E+00  0.500000E-02
     1        110     2     2  0.550000E+00  0.550000E+00  0.500000E-02
     1        110     2     2  0.550000E+00  0.550000E+00  0.500000E-02
     1        111     1     3  0.555000E+00  0.555000E+00  0.500000E-02
     1        111     2     3  0.555000E+00  0.555000E+00  0.500000E-02
     1        111     2     3  0.555000E+00  0.555000E+00  0.500000E-02
     1        111     2     3  0.555000E+00  0.555000E+00  0.500000E-02
     1        111     2     3  0.555000E+00  0.555000E+00  0.500000E-02
     1        111     2     3  0.555000E+00  0.555000E+00  0.500000E-02
     1        111     2     3  0.555000E+00  0.555000E+00  0.500000E-02
     1        111     2     3  0.555000E+00  0.555000E+00  0.500000E-02
     1        111     2     3  0.555000E+00  0.555000E+00  0.500000E-02
     1        111     2     3  0.555000E+00  0.555000E+00  0.500000E-02
     1        111     2     3  0.555000E+00  0.555000E+00  0.500000E-02
     1        111     2     3  0.555000E+00  0.555000E+00  0.500000E-02
     1        111     2     3  0.555000E+00  0.555000E+00  0.500000E-02
     1        111     2     3  0.555000E+00  0.555000E+00  0.500000E-02
     1        111     2     3  0.555000E+00  0.555000E+00  0.500000E-02
     1        111     2     3  0.555000E+00  0.555000E+00  0.500000E-02
     1        111     2     3  0.555000E+00  0.555000E+00  0.500000E-02
     1        111     2     3  0.555000E+00  0.555000E+00  0.500000E-02
     1        111     2     3  0.555000E+00  0.555000E+00  0.500000E-02
     1        111     2     3  0.555000E+00  0.555000E+00  0.500000E-02
     1        111     2     2  0.555000E+00  0.555000E+00  0.500000E-02
     1        111     2     2  0.555000E+00  0.555000E+00  0.500000E-02
     1        111     2     2  0.555000E+00  0.555000E+00  0.500000E-02
     1        111     2     3  0.555000E+00  0.555000E+00  0.500000E-02
     1        111     2     3  0.555000E+00  0.555000E+00  0.500000E-02
     1        111     2     3  0.555000E+00  0.555000E+00  0.500000E-02
     1        111     2     3  0.555000E+00  0.555000E+00  0.500000E-02
     1        111     2     3  0.555000E+00  0.555000E+00  0.500000E-02
     1        111     2     3  0.555000E+00  0.555000E+00  0.500000E-02
     1        111     2     3  0.555000E+00  0.555000E+00  0.500000E-02
     1        112     1     3  0.560000E+00  0.560000E+00  0.500000E-02
     1        112     2U    4  0.555000E+00  0.555000E+00  0.500000E-02
